8
energy: -7.336370652464 gnorm: 0.000105707852 xtb: 6.7.1 (edcfbbe)
C     -4.89368    1.76315   -0.00000
C     -3.37243    1.76315   -0.00001
H     -5.27653    2.58365   -0.60284
H     -5.27653    0.83083   -0.40915
H     -5.27652    1.87498    1.01199
H     -2.98959    0.79509    0.31539
H     -2.98959    1.97404   -0.99608
H     -2.98958    2.52033    0.68066
