8
 energy: -7.336370652464 gnorm: 0.000105707852 xtb: 6.7.1 (edcfbbe)
C           -4.89368162391781        1.76315252136137       -0.00000074067976
C           -3.37242328467847        1.76315496782267       -0.00000924293022
H           -5.27653092355219        2.58365088225784       -0.60283503755256
H           -5.27652952987708        0.83083067931253       -0.40915109158956
H           -5.27651819281895        1.87497612873541        1.01199328499154
H           -2.98958677624274        1.65133019628616       -1.01200313414471
H           -2.98957550727694        2.69547731316785        0.40913999267852
H           -2.98957416163582        0.94265731105617        0.60282596922674
